<?xml version='1.0' encoding='ISO-8859-1'?>
<febio_spec version="1.2">
  <Module type="solid"/>
  <Control>
    <time_steps>10</time_steps>
    <step_size>0.1</step_size>
    <max_refs>15</max_refs>
    <max_ups>10</max_ups>
    <dtol>0.001</dtol>
    <etol>0.01</etol>
    <rtol>0</rtol>
    <lstol>0.9</lstol>
    <time_stepper>
      <dtmin>0.01</dtmin>
      <dtmax>0.1</dtmax>
      <max_retries>5</max_retries>
      <opt_iter>10</opt_iter>
    </time_stepper>
    <analysis type="static"/>
  </Control>
  <Material>
    <material id="1" type="neo-Hookean">
      <density>1000</density>
      <E>14012600913.2</E>
      <v>0.3</v>
    </material>
    <material id="2" type="neo-Hookean">
      <density>1000</density>
      <E>14012685217.3</E>
      <v>0.3</v>
    </material>
    <material id="3" type="neo-Hookean">
      <density>1000</density>
      <E>14012656798.0</E>
      <v>0.3</v>
    </material>
    <material id="4" type="neo-Hookean">
      <density>1000</density>
      <E>14012520582.1</E>
      <v>0.3</v>
    </material>
    <material id="5" type="neo-Hookean">
      <density>1000</density>
      <E>14012284588.9</E>
      <v>0.3</v>
    </material>
    <material id="6" type="neo-Hookean">
      <density>1000</density>
      <E>14011949535.5</E>
      <v>0.3</v>
    </material>
    <material id="7" type="neo-Hookean">
      <density>1000</density>
      <E>14011515804.8</E>
      <v>0.3</v>
    </material>
    <material id="8" type="neo-Hookean">
      <density>1000</density>
      <E>14010987837.1</E>
      <v>0.3</v>
    </material>
    <material id="9" type="neo-Hookean">
      <density>1000</density>
      <E>14010365545.7</E>
      <v>0.3</v>
    </material>
    <material id="10" type="neo-Hookean">
      <density>1000</density>
      <E>14009652101.9</E>
      <v>0.3</v>
    </material>
    <material id="11" type="neo-Hookean">
      <density>1000</density>
      <E>14008846354.2</E>
      <v>0.3</v>
    </material>
    <material id="12" type="neo-Hookean">
      <density>1000</density>
      <E>14007948796.9</E>
      <v>0.3</v>
    </material>
    <material id="13" type="neo-Hookean">
      <density>1000</density>
      <E>14006962420.7</E>
      <v>0.3</v>
    </material>
    <material id="14" type="neo-Hookean">
      <density>1000</density>
      <E>14005889554.7</E>
      <v>0.3</v>
    </material>
    <material id="15" type="neo-Hookean">
      <density>1000</density>
      <E>14004732322.1</E>
      <v>0.3</v>
    </material>
    <material id="16" type="neo-Hookean">
      <density>1000</density>
      <E>14003498750.9</E>
      <v>0.3</v>
    </material>
    <material id="17" type="neo-Hookean">
      <density>1000</density>
      <E>14002193162.7</E>
      <v>0.3</v>
    </material>
    <material id="18" type="neo-Hookean">
      <density>1000</density>
      <E>14000824582.2</E>
      <v>0.3</v>
    </material>
    <material id="19" type="neo-Hookean">
      <density>1000</density>
      <E>13999406142.3</E>
      <v>0.3</v>
    </material>
    <material id="20" type="neo-Hookean">
      <density>1000</density>
      <E>13997946730.2</E>
      <v>0.3</v>
    </material>
    <material id="21" type="neo-Hookean">
      <density>1000</density>
      <E>13996464160.9</E>
      <v>0.3</v>
    </material>
    <material id="22" type="neo-Hookean">
      <density>1000</density>
      <E>13994974957.9</E>
      <v>0.3</v>
    </material>
    <material id="23" type="neo-Hookean">
      <density>1000</density>
      <E>13993494213.2</E>
      <v>0.3</v>
    </material>
    <material id="24" type="neo-Hookean">
      <density>1000</density>
      <E>13992041601.7</E>
      <v>0.3</v>
    </material>
    <material id="25" type="neo-Hookean">
      <density>1000</density>
      <E>13990640637.6</E>
      <v>0.3</v>
    </material>
    <material id="26" type="neo-Hookean">
      <density>1000</density>
      <E>13989305857.0</E>
      <v>0.3</v>
    </material>
    <material id="27" type="neo-Hookean">
      <density>1000</density>
      <E>13988055653.6</E>
      <v>0.3</v>
    </material>
    <material id="28" type="neo-Hookean">
      <density>1000</density>
      <E>13986909229.8</E>
      <v>0.3</v>
    </material>
    <material id="29" type="neo-Hookean">
      <density>1000</density>
      <E>13985883404.7</E>
      <v>0.3</v>
    </material>
    <material id="30" type="neo-Hookean">
      <density>1000</density>
      <E>13984994564.2</E>
      <v>0.3</v>
    </material>
    <material id="31" type="neo-Hookean">
      <density>1000</density>
      <E>13984249191.5</E>
      <v>0.3</v>
    </material>
    <material id="32" type="neo-Hookean">
      <density>1000</density>
      <E>13983658494.6</E>
      <v>0.3</v>
    </material>
    <material id="33" type="neo-Hookean">
      <density>1000</density>
      <E>13983227745.9</E>
      <v>0.3</v>
    </material>
    <material id="34" type="neo-Hookean">
      <density>1000</density>
      <E>13982954472.2</E>
      <v>0.3</v>
    </material>
    <material id="35" type="neo-Hookean">
      <density>1000</density>
      <E>13982844245.6</E>
      <v>0.3</v>
    </material>
    <material id="36" type="neo-Hookean">
      <density>1000</density>
      <E>13982889496.8</E>
      <v>0.3</v>
    </material>
    <material id="37" type="neo-Hookean">
      <density>1000</density>
      <E>13983075190.5</E>
      <v>0.3</v>
    </material>
    <material id="38" type="neo-Hookean">
      <density>1000</density>
      <E>13983399497.0</E>
      <v>0.3</v>
    </material>
    <material id="39" type="neo-Hookean">
      <density>1000</density>
      <E>13983846714.1</E>
      <v>0.3</v>
    </material>
    <material id="40" type="neo-Hookean">
      <density>1000</density>
      <E>13984392845.9</E>
      <v>0.3</v>
    </material>
    <material id="41" type="neo-Hookean">
      <density>1000</density>
      <E>13985022764.5</E>
      <v>0.3</v>
    </material>
    <material id="42" type="neo-Hookean">
      <density>1000</density>
      <E>13985716391.4</E>
      <v>0.3</v>
    </material>
    <material id="43" type="neo-Hookean">
      <density>1000</density>
      <E>13986454135.3</E>
      <v>0.3</v>
    </material>
    <material id="44" type="neo-Hookean">
      <density>1000</density>
      <E>13987213085.7</E>
      <v>0.3</v>
    </material>
    <material id="45" type="neo-Hookean">
      <density>1000</density>
      <E>13987971193.9</E>
      <v>0.3</v>
    </material>
    <material id="46" type="neo-Hookean">
      <density>1000</density>
      <E>13988707348.3</E>
      <v>0.3</v>
    </material>
    <material id="47" type="neo-Hookean">
      <density>1000</density>
      <E>13989400537.4</E>
      <v>0.3</v>
    </material>
    <material id="48" type="neo-Hookean">
      <density>1000</density>
      <E>13990035050.2</E>
      <v>0.3</v>
    </material>
    <material id="49" type="neo-Hookean">
      <density>1000</density>
      <E>13990592761.2</E>
      <v>0.3</v>
    </material>
    <material id="50" type="neo-Hookean">
      <density>1000</density>
      <E>13991060379.4</E>
      <v>0.3</v>
    </material>
    <material id="51" type="neo-Hookean">
      <density>1000</density>
      <E>13991504039.2</E>
      <v>0.3</v>
    </material>
    <material id="52" type="neo-Hookean">
      <density>1000</density>
      <E>13991852986.8</E>
      <v>0.3</v>
    </material>
    <material id="53" type="neo-Hookean">
      <density>1000</density>
      <E>13992186150.0</E>
      <v>0.3</v>
    </material>
    <material id="54" type="neo-Hookean">
      <density>1000</density>
      <E>13992588676.1</E>
      <v>0.3</v>
    </material>
    <material id="55" type="neo-Hookean">
      <density>1000</density>
      <E>13993212585.1</E>
      <v>0.3</v>
    </material>
    <material id="56" type="neo-Hookean">
      <density>1000</density>
      <E>13994304133.2</E>
      <v>0.3</v>
    </material>
    <material id="57" type="neo-Hookean">
      <density>1000</density>
      <E>13996226686.1</E>
      <v>0.3</v>
    </material>
    <material id="58" type="neo-Hookean">
      <density>1000</density>
      <E>13999509861.3</E>
      <v>0.3</v>
    </material>
    <material id="59" type="neo-Hookean">
      <density>1000</density>
      <E>14004838639.9</E>
      <v>0.3</v>
    </material>
    <material id="60" type="neo-Hookean">
      <density>1000</density>
      <E>14013023347.9</E>
      <v>0.3</v>
    </material>
    <material id="61" type="neo-Hookean">
      <density>1000</density>
      <E>14024931615.8</E>
      <v>0.3</v>
    </material>
    <material id="62" type="neo-Hookean">
      <density>1000</density>
      <E>14041338701.7</E>
      <v>0.3</v>
    </material>
    <material id="63" type="neo-Hookean">
      <density>1000</density>
      <E>14062726431.4</E>
      <v>0.3</v>
    </material>
    <material id="64" type="neo-Hookean">
      <density>1000</density>
      <E>14089052679.8</E>
      <v>0.3</v>
    </material>
    <material id="65" type="neo-Hookean">
      <density>1000</density>
      <E>14119550207.2</E>
      <v>0.3</v>
    </material>
    <material id="66" type="neo-Hookean">
      <density>1000</density>
      <E>14152621543.7</E>
      <v>0.3</v>
    </material>
    <material id="67" type="neo-Hookean">
      <density>1000</density>
      <E>14185875919.6</E>
      <v>0.3</v>
    </material>
    <material id="68" type="neo-Hookean">
      <density>1000</density>
      <E>14216353439.8</E>
      <v>0.3</v>
    </material>
    <material id="69" type="neo-Hookean">
      <density>1000</density>
      <E>14240942219.7</E>
      <v>0.3</v>
    </material>
    <material id="70" type="neo-Hookean">
      <density>1000</density>
      <E>14256893927.5</E>
      <v>0.3</v>
    </material>
    <material id="71" type="neo-Hookean">
      <density>1000</density>
      <E>14262316909.9</E>
      <v>0.3</v>
    </material>
    <material id="72" type="neo-Hookean">
      <density>1000</density>
      <E>14256538867.0</E>
      <v>0.3</v>
    </material>
    <material id="73" type="neo-Hookean">
      <density>1000</density>
      <E>14240248932.0</E>
      <v>0.3</v>
    </material>
    <material id="74" type="neo-Hookean">
      <density>1000</density>
      <E>14215366753.7</E>
      <v>0.3</v>
    </material>
    <material id="75" type="neo-Hookean">
      <density>1000</density>
      <E>14184669177.3</E>
      <v>0.3</v>
    </material>
    <material id="76" type="neo-Hookean">
      <density>1000</density>
      <E>14151279345.0</E>
      <v>0.3</v>
    </material>
    <material id="77" type="neo-Hookean">
      <density>1000</density>
      <E>14118170898.8</E>
      <v>0.3</v>
    </material>
    <material id="78" type="neo-Hookean">
      <density>1000</density>
      <E>14087758402.4</E>
      <v>0.3</v>
    </material>
    <material id="79" type="neo-Hookean">
      <density>1000</density>
      <E>14061652618.6</E>
      <v>0.3</v>
    </material>
    <material id="80" type="neo-Hookean">
      <density>1000</density>
      <E>14040627067.7</E>
      <v>0.3</v>
    </material>
    <material id="81" type="neo-Hookean">
      <density>1000</density>
      <E>14024730656.7</E>
      <v>0.3</v>
    </material>
    <material id="82" type="neo-Hookean">
      <density>1000</density>
      <E>14013486520.7</E>
      <v>0.3</v>
    </material>
    <material id="83" type="neo-Hookean">
      <density>1000</density>
      <E>14006119050.3</E>
      <v>0.3</v>
    </material>
    <material id="84" type="neo-Hookean">
      <density>1000</density>
      <E>14001760950.8</E>
      <v>0.3</v>
    </material>
    <material id="85" type="neo-Hookean">
      <density>1000</density>
      <E>13999587025.7</E>
      <v>0.3</v>
    </material>
    <material id="86" type="neo-Hookean">
      <density>1000</density>
      <E>13998909511.1</E>
      <v>0.3</v>
    </material>
    <material id="87" type="neo-Hookean">
      <density>1000</density>
      <E>13999195185.4</E>
      <v>0.3</v>
    </material>
    <material id="88" type="neo-Hookean">
      <density>1000</density>
      <E>14000051592.7</E>
      <v>0.3</v>
    </material>
    <material id="89" type="neo-Hookean">
      <density>1000</density>
      <E>14001216957.0</E>
      <v>0.3</v>
    </material>
    <material id="90" type="neo-Hookean">
      <density>1000</density>
      <E>14002527106.6</E>
      <v>0.3</v>
    </material>
    <material id="91" type="neo-Hookean">
      <density>1000</density>
      <E>14003877614.4</E>
      <v>0.3</v>
    </material>
    <material id="92" type="neo-Hookean">
      <density>1000</density>
      <E>14005165985.7</E>
      <v>0.3</v>
    </material>
    <material id="93" type="neo-Hookean">
      <density>1000</density>
      <E>14006436916.9</E>
      <v>0.3</v>
    </material>
    <material id="94" type="neo-Hookean">
      <density>1000</density>
      <E>14007603377.8</E>
      <v>0.3</v>
    </material>
    <material id="95" type="neo-Hookean">
      <density>1000</density>
      <E>14008657868.9</E>
      <v>0.3</v>
    </material>
    <material id="96" type="neo-Hookean">
      <density>1000</density>
      <E>14009594344.2</E>
      <v>0.3</v>
    </material>
    <material id="97" type="neo-Hookean">
      <density>1000</density>
      <E>14010408061.8</E>
      <v>0.3</v>
    </material>
    <material id="98" type="neo-Hookean">
      <density>1000</density>
      <E>14011093177.2</E>
      <v>0.3</v>
    </material>
    <material id="99" type="neo-Hookean">
      <density>1000</density>
      <E>14011652998.8</E>
      <v>0.3</v>
    </material>
    <material id="100" type="neo-Hookean">
      <density>1000</density>
      <E>14012092392.2</E>
      <v>0.3</v>
    </material>
    <material id="101" type="neo-Hookean">
      <density>1000</density>
      <E>14012405903.2</E>
      <v>0.3</v>
    </material>
  </Material>
  <Geometry>
    <Nodes>
      <node id="1">0.0, 0.0, 0.0</node>
      <node id="2">0.0039603960396039604, 0.0, 0.0</node>
      <node id="3">0.0079207920792079209, 0.0, 0.0</node>
      <node id="4">0.011881188118811881, 0.0, 0.0</node>
      <node id="5">0.015841584158415842, 0.0, 0.0</node>
      <node id="6">0.019801980198019802, 0.0, 0.0</node>
      <node id="7">0.023762376237623763, 0.0, 0.0</node>
      <node id="8">0.027722772277227723, 0.0, 0.0</node>
      <node id="9">0.031683168316831684, 0.0, 0.0</node>
      <node id="10">0.035643564356435647, 0.0, 0.0</node>
      <node id="11">0.039603960396039604, 0.0, 0.0</node>
      <node id="12">0.043564356435643561, 0.0, 0.0</node>
      <node id="13">0.047524752475247525, 0.0, 0.0</node>
      <node id="14">0.051485148514851489, 0.0, 0.0</node>
      <node id="15">0.055445544554455446, 0.0, 0.0</node>
      <node id="16">0.059405940594059403, 0.0, 0.0</node>
      <node id="17">0.063366336633663367, 0.0, 0.0</node>
      <node id="18">0.067326732673267331, 0.0, 0.0</node>
      <node id="19">0.071287128712871295, 0.0, 0.0</node>
      <node id="20">0.075247524752475245, 0.0, 0.0</node>
<!-- ... 388 like lines cut -->
    </Nodes>
    <Elements>
      <hex8 id="1" mat="1">1, 2, 104, 103, 205, 206, 308, 307</hex8>
      <hex8 id="2" mat="2">2, 3, 105, 104, 206, 207, 309, 308</hex8>
      <hex8 id="3" mat="3">3, 4, 106, 105, 207, 208, 310, 309</hex8>
      <hex8 id="4" mat="4">4, 5, 107, 106, 208, 209, 311, 310</hex8>
      <hex8 id="5" mat="5">5, 6, 108, 107, 209, 210, 312, 311</hex8>
      <hex8 id="6" mat="6">6, 7, 109, 108, 210, 211, 313, 312</hex8>
      <hex8 id="7" mat="7">7, 8, 110, 109, 211, 212, 314, 313</hex8>
      <hex8 id="8" mat="8">8, 9, 111, 110, 212, 213, 315, 314</hex8>
      <hex8 id="9" mat="9">9, 10, 112, 111, 213, 214, 316, 315</hex8>
      <hex8 id="10" mat="10">10, 11, 113, 112, 214, 215, 317, 316</hex8>
      <hex8 id="11" mat="11">11, 12, 114, 113, 215, 216, 318, 317</hex8>
      <hex8 id="12" mat="12">12, 13, 115, 114, 216, 217, 319, 318</hex8>
      <hex8 id="13" mat="13">13, 14, 116, 115, 217, 218, 320, 319</hex8>
      <hex8 id="14" mat="14">14, 15, 117, 116, 218, 219, 321, 320</hex8>
      <hex8 id="15" mat="15">15, 16, 118, 117, 219, 220, 322, 321</hex8>
      <hex8 id="16" mat="16">16, 17, 119, 118, 220, 221, 323, 322</hex8>
      <hex8 id="17" mat="17">17, 18, 120, 119, 221, 222, 324, 323</hex8>
      <hex8 id="18" mat="18">18, 19, 121, 120, 222, 223, 325, 324</hex8>
      <hex8 id="19" mat="19">19, 20, 122, 121, 223, 224, 326, 325</hex8>
      <hex8 id="20" mat="20">20, 21, 123, 122, 224, 225, 327, 326</hex8>
<!-- ... 81 like lines cut -->
    </Elements>
  </Geometry>
  <Boundary>
    <fix>
      <node bc="xyz" id="1"/>
      <node bc="x" id="103"/>
      <node bc="x" id="205"/>
      <node bc="x" id="307"/>
    </fix>
  </Boundary>
  <Loads>
    <force>
      <node bc="x" id="102" lc="1">-2000</node>
      <node bc="x" id="204" lc="1">-2000</node>
      <node bc="x" id="306" lc="1">-2000</node>
      <node bc="x" id="408" lc="1">-2000</node>
    </force>
  </Loads>
  <LoadData>
    <loadcurve id="1" type="smooth">
      <loadpoint>0, 0</loadpoint>
      <loadpoint>1, 1</loadpoint>
    </loadcurve>
  </LoadData>
  <Output>
    <plotfile type="febio">
      <var type="displacement"/>
      <var type="stress"/>
      <shell_strain>1</shell_strain>
    </plotfile>
    <logfile>
      <element_data data="Ex;Ey;Ez;Exy;Eyz;Exz">1:101</element_data>
    </logfile>
  </Output>
</febio_spec>
